
     RDKit          3D

  3  2  0  0  0  0  0  0  0  0999 V2000
    1.2206   -0.2596    0.0000 C   0  0  0  0  0  0  0  0  0  0  0  0
   -0.0534    0.5565   -0.0000 C   0  0  0  0  0  0  0  0  0  0  0  0
   -1.1672   -0.2969   -0.0000 O   0  0  0  0  0  0  0  0  0  0  0  0
  1  2  1  0
  2  3  1  0
M  END

